@<TRIPOS>MOLECULE
../../test/benzene.xyz
 12 12 0 0 0
SMALL
GASTEIGER

@<TRIPOS>ATOM
      1 C          -2.0973    2.4199    0.0000 C.ar    1  LIG1       -0.0618
      2 C          -0.6995    2.4790   -0.0000 C.ar    1  LIG1       -0.0618
      3 C           0.0506    1.2980   -0.0000 C.ar    1  LIG1       -0.0618
      4 C          -0.5971    0.0580   -0.0000 C.ar    1  LIG1       -0.0618
      5 C          -1.9949   -0.0011    0.0000 C.ar    1  LIG1       -0.0618
      6 C          -2.7450    1.1798    0.0000 C.ar    1  LIG1       -0.0618
      7 H          -0.1984    3.4384   -0.0000 H       1  LIG1        0.0618
      8 H           1.1320    1.3438   -0.0000 H       1  LIG1        0.0618
      9 H          -0.0168   -0.8557   -0.0000 H       1  LIG1        0.0618
     10 H          -2.4960   -0.9605    0.0000 H       1  LIG1        0.0618
     11 H          -3.8264    1.1341    0.0000 H       1  LIG1        0.0618
     12 H          -2.6776    3.3336    0.0000 H       1  LIG1        0.0618
@<TRIPOS>BOND
     1     1     2   ar
     2     1     6   ar
     3     1    12    1
     4     2     3   ar
     5     2     7    1
     6     3     4   ar
     7     3     8    1
     8     4     5   ar
     9     4     9    1
    10     5     6   ar
    11     5    10    1
    12     6    11    1
