@<TRIPOS>MOLECULE
931
 18 19 0 0 0
SMALL
GASTEIGER

@<TRIPOS>ATOM
      1 C           0.0000    0.7076    0.0001 C.ar    1  LIG1       -0.0179
      2 C           0.0000   -0.7076    0.0000 C.ar    1  LIG1       -0.0179
      3 C           1.2250    1.3944    0.0000 C.ar    1  LIG1       -0.0540
      4 C           1.2250   -1.3944    0.0001 C.ar    1  LIG1       -0.0540
      5 C          -1.2250    1.3943    0.0000 C.ar    1  LIG1       -0.0540
      6 C          -1.2250   -1.3943    0.0000 C.ar    1  LIG1       -0.0540
      7 C           2.4327    0.6959   -0.0001 C.ar    1  LIG1       -0.0612
      8 C           2.4327   -0.6958    0.0000 C.ar    1  LIG1       -0.0612
      9 C          -2.4327    0.6958    0.0000 C.ar    1  LIG1       -0.0612
     10 C          -2.4327   -0.6958   -0.0001 C.ar    1  LIG1       -0.0612
     11 H           1.2489    2.4821   -0.0001 H       1  LIG1        0.0624
     12 H           1.2489   -2.4822    0.0001 H       1  LIG1        0.0624
     13 H          -1.2490    2.4821    0.0001 H       1  LIG1        0.0624
     14 H          -1.2489   -2.4822   -0.0001 H       1  LIG1        0.0624
     15 H           3.3732    1.2391   -0.0001 H       1  LIG1        0.0618
     16 H           3.3733   -1.2390   -0.0001 H       1  LIG1        0.0618
     17 H          -3.3732    1.2390    0.0000 H       1  LIG1        0.0618
     18 H          -3.3733   -1.2390   -0.0001 H       1  LIG1        0.0618
@<TRIPOS>BOND
     1     1     2   ar
     2     1     3   ar
     3     1     5   ar
     4     2     4   ar
     5     2     6   ar
     6     3     7   ar
     7     3    11    1
     8     4     8   ar
     9     4    12    1
    10     5     9   ar
    11     5    13    1
    12     6    10   ar
    13     6    14    1
    14     7     8   ar
    15     7    15    1
    16     8    16    1
    17     9    10   ar
    18     9    17    1
    19    10    18    1
