@<TRIPOS>MOLECULE
9162
 36 40 0 0 0
SMALL
GASTEIGER

@<TRIPOS>ATOM
      1 C           0.7255    0.7593    0.0004 C.ar    1  LIG1       -0.0096
      2 C          -0.7254    0.7593    0.0003 C.ar    1  LIG1       -0.0096
      3 C           1.4523   -0.4625    0.0005 C.ar    1  LIG1       -0.0096
      4 C          -1.4524   -0.4625    0.0005 C.ar    1  LIG1       -0.0096
      5 C           2.8985   -0.4723    0.0002 C.ar    1  LIG1       -0.0102
      6 C          -2.8984   -0.4723    0.0002 C.ar    1  LIG1       -0.0102
      7 C           0.6977   -1.6453    0.0008 C.ar    1  LIG1       -0.0528
      8 C          -0.6978   -1.6453    0.0008 C.ar    1  LIG1       -0.0528
      9 C           3.5974    0.7571    0.0000 C.ar    1  LIG1       -0.0173
     10 C          -3.5973    0.7571   -0.0002 C.ar    1  LIG1       -0.0173
     11 C           1.4897    1.9471    0.0001 C.ar    1  LIG1       -0.0529
     12 C          -1.4897    1.9471    0.0001 C.ar    1  LIG1       -0.0529
     13 C           2.8836    1.9497    0.0001 C.ar    1  LIG1       -0.0534
     14 C          -2.8835    1.9497   -0.0001 C.ar    1  LIG1       -0.0534
     15 C           3.6992   -1.6458   -0.0003 C.ar    1  LIG1       -0.0534
     16 C          -3.6993   -1.6457   -0.0002 C.ar    1  LIG1       -0.0534
     17 C           5.0032    0.7934   -0.0002 C.ar    1  LIG1       -0.0540
     18 C          -5.0032    0.7934   -0.0006 C.ar    1  LIG1       -0.0540
     19 C           5.0968   -1.6012   -0.0008 C.ar    1  LIG1       -0.0611
     20 C          -5.0969   -1.6012   -0.0004 C.ar    1  LIG1       -0.0611
     21 C           5.7497   -0.3796   -0.0007 C.ar    1  LIG1       -0.0612
     22 C          -5.7497   -0.3795   -0.0006 C.ar    1  LIG1       -0.0612
     23 H           1.1735   -2.6226    0.0010 H       1  LIG1        0.0624
     24 H          -1.1737   -2.6226    0.0009 H       1  LIG1        0.0624
     25 H           1.0178    2.9260   -0.0001 H       1  LIG1        0.0624
     26 H          -1.0177    2.9260    0.0001 H       1  LIG1        0.0624
     27 H           3.3992    2.9084   -0.0001 H       1  LIG1        0.0624
     28 H          -3.3991    2.9084   -0.0003 H       1  LIG1        0.0624
     29 H           3.2488   -2.6349   -0.0003 H       1  LIG1        0.0624
     30 H          -3.2488   -2.6349   -0.0001 H       1  LIG1        0.0624
     31 H           5.5322    1.7449   -0.0002 H       1  LIG1        0.0624
     32 H          -5.5321    1.7449   -0.0008 H       1  LIG1        0.0624
     33 H           5.6682   -2.5248   -0.0011 H       1  LIG1        0.0618
     34 H          -5.6683   -2.5248   -0.0005 H       1  LIG1        0.0618
     35 H           6.8344   -0.3375   -0.0010 H       1  LIG1        0.0618
     36 H          -6.8344   -0.3374   -0.0008 H       1  LIG1        0.0618
@<TRIPOS>BOND
     1     1     2   ar
     2     1     3   ar
     3     1    11   ar
     4     2     4   ar
     5     2    12   ar
     6     3     5   ar
     7     3     7   ar
     8     4     6   ar
     9     4     8   ar
    10     5     9   ar
    11     5    15   ar
    12     6    10   ar
    13     6    16   ar
    14     7     8   ar
    15     7    23    1
    16     8    24    1
    17     9    13   ar
    18     9    17   ar
    19    10    14   ar
    20    10    18   ar
    21    11    13   ar
    22    11    25    1
    23    12    14   ar
    24    12    26    1
    25    13    27    1
    26    14    28    1
    27    15    19   ar
    28    15    29    1
    29    16    20   ar
    30    16    30    1
    31    17    21   ar
    32    17    31    1
    33    18    22   ar
    34    18    32    1
    35    19    21   ar
    36    19    33    1
    37    20    22   ar
    38    20    34    1
    39    21    35    1
    40    22    36    1
