@<TRIPOS>MOLECULE
8418
 24 26 0 0 0
SMALL
GASTEIGER

@<TRIPOS>ATOM
      1 C          -1.2251   -0.7061    0.0001 C.ar    1  LIG1       -0.0173
      2 C          -1.2250    0.7060    0.0001 C.ar    1  LIG1       -0.0173
      3 C           1.2251   -0.7061    0.0001 C.ar    1  LIG1       -0.0173
      4 C           1.2251    0.7061    0.0002 C.ar    1  LIG1       -0.0173
      5 C           0.0000   -1.3938    0.0000 C.ar    1  LIG1       -0.0463
      6 C           0.0000    1.3937    0.0001 C.ar    1  LIG1       -0.0463
      7 C          -2.4505   -1.3930    0.0000 C.ar    1  LIG1       -0.0540
      8 C          -2.4504    1.3930   -0.0001 C.ar    1  LIG1       -0.0540
      9 C           2.4505   -1.3929    0.0000 C.ar    1  LIG1       -0.0540
     10 C           2.4505    1.3929    0.0000 C.ar    1  LIG1       -0.0540
     11 C          -3.6588   -0.6955   -0.0001 C.ar    1  LIG1       -0.0612
     12 C          -3.6587    0.6956   -0.0001 C.ar    1  LIG1       -0.0612
     13 C           3.6587   -0.6956   -0.0002 C.ar    1  LIG1       -0.0612
     14 C           3.6587    0.6956   -0.0002 C.ar    1  LIG1       -0.0612
     15 H           0.0000   -2.4839   -0.0001 H       1  LIG1        0.0630
     16 H           0.0000    2.4838    0.0000 H       1  LIG1        0.0630
     17 H          -2.4744   -2.4809    0.0000 H       1  LIG1        0.0624
     18 H          -2.4742    2.4808   -0.0001 H       1  LIG1        0.0624
     19 H           2.4743   -2.4808    0.0000 H       1  LIG1        0.0624
     20 H           2.4742    2.4808    0.0000 H       1  LIG1        0.0624
     21 H          -4.5991   -1.2391   -0.0002 H       1  LIG1        0.0618
     22 H          -4.5989    1.2394   -0.0003 H       1  LIG1        0.0618
     23 H           4.5989   -1.2393   -0.0004 H       1  LIG1        0.0618
     24 H           4.5989    1.2393   -0.0003 H       1  LIG1        0.0618
@<TRIPOS>BOND
     1     1     2   ar
     2     1     5   ar
     3     1     7   ar
     4     2     6   ar
     5     2     8   ar
     6     3     4   ar
     7     3     5   ar
     8     3     9   ar
     9     4     6   ar
    10     4    10   ar
    11     5    15    1
    12     6    16    1
    13     7    11   ar
    14     7    17    1
    15     8    12   ar
    16     8    18    1
    17     9    13   ar
    18     9    19    1
    19    10    14   ar
    20    10    20    1
    21    11    12   ar
    22    11    21    1
    23    12    22    1
    24    13    14   ar
    25    13    23    1
    26    14    24    1
