@<TRIPOS>MOLECULE
995
 24 26 0 0 0
SMALL
GASTEIGER

@<TRIPOS>ATOM
      1 C          -0.7199   -0.3930   -0.0006 C.ar    1  LIG1       -0.0102
      2 C           0.7199   -0.3930   -0.0004 C.ar    1  LIG1       -0.0102
      3 C          -1.4123    0.8461   -0.0003 C.ar    1  LIG1       -0.0173
      4 C           1.4123    0.8461   -0.0002 C.ar    1  LIG1       -0.0173
      5 C          -0.6957    2.0453   -0.0001 C.ar    1  LIG1       -0.0534
      6 C           0.6954    2.0453   -0.0001 C.ar    1  LIG1       -0.0534
      7 C          -1.5154   -1.5662   -0.0003 C.ar    1  LIG1       -0.0534
      8 C           1.5154   -1.5661   -0.0003 C.ar    1  LIG1       -0.0534
      9 C          -2.8173    0.8802    0.0004 C.ar    1  LIG1       -0.0540
     10 C           2.8173    0.8802    0.0003 C.ar    1  LIG1       -0.0540
     11 C          -2.9121   -1.5182    0.0002 C.ar    1  LIG1       -0.0611
     12 C           2.9122   -1.5181    0.0003 C.ar    1  LIG1       -0.0611
     13 C          -3.5631   -0.2943    0.0007 C.ar    1  LIG1       -0.0612
     14 C           3.5633   -0.2943    0.0005 C.ar    1  LIG1       -0.0612
     15 H          -1.2140    3.0024    0.0002 H       1  LIG1        0.0624
     16 H           1.2138    3.0025    0.0002 H       1  LIG1        0.0624
     17 H          -1.0604   -2.5534   -0.0004 H       1  LIG1        0.0624
     18 H           1.0605   -2.5533   -0.0004 H       1  LIG1        0.0624
     19 H          -3.3475    1.8309    0.0009 H       1  LIG1        0.0624
     20 H           3.3474    1.8310    0.0006 H       1  LIG1        0.0624
     21 H          -3.4858   -2.4405    0.0003 H       1  LIG1        0.0618
     22 H           3.4858   -2.4404    0.0006 H       1  LIG1        0.0618
     23 H          -4.6480   -0.2517    0.0012 H       1  LIG1        0.0618
     24 H           4.6481   -0.2517    0.0009 H       1  LIG1        0.0618
@<TRIPOS>BOND
     1     1     2   ar
     2     1     3   ar
     3     1     7   ar
     4     2     4   ar
     5     2     8   ar
     6     3     5   ar
     7     3     9   ar
     8     4     6   ar
     9     4    10   ar
    10     5     6   ar
    11     5    15    1
    12     6    16    1
    13     7    11   ar
    14     7    17    1
    15     8    12   ar
    16     8    18    1
    17     9    13   ar
    18     9    19    1
    19    10    14   ar
    20    10    20    1
    21    11    13   ar
    22    11    21    1
    23    12    14   ar
    24    12    22    1
    25    13    23    1
    26    14    24    1
